69
qd-hex-zigzag-3-H-terminated-sv-2-sv-14-sv-38
C      -3.689268   -4.970000    0.000000
C      -3.689268   -3.550000    0.000000
C      -2.459512   -1.420000    0.000000
C      -1.229756   -0.710000    0.000000
C      -1.229756    0.710000    0.000000
C       0.000000    1.420000    0.000000
C       0.000000    2.840000    0.000000
C       1.229756    3.550000    0.000000
C       1.229756    4.970000    0.000000
C       2.459512    5.680000    0.000000
C      -4.919024   -2.840000    0.000000
C      -4.919024   -1.420000    0.000000
C      -3.689268   -0.710000    0.000000
C      -2.459512    1.420000    0.000000
C      -2.459512    2.840000    0.000000
C      -1.229756    3.550000    0.000000
C      -1.229756    4.970000    0.000000
C       0.000000    5.680000    0.000000
C      -6.148780   -0.710000    0.000000
C      -6.148780    0.710000    0.000000
C      -4.919024    1.420000    0.000000
C      -4.919024    2.840000    0.000000
C      -3.689268    3.550000    0.000000
C      -3.689268    4.970000    0.000000
C      -2.459512    5.680000    0.000000
C       2.459512   -5.680000    0.000000
C       3.689268   -4.970000    0.000000
C       3.689268   -3.550000    0.000000
C       4.919024   -2.840000    0.000000
C       4.919024   -1.420000    0.000000
C       6.148780   -0.710000    0.000000
C       6.148780    0.710000    0.000000
C       0.000000   -5.680000    0.000000
C       1.229756   -4.970000    0.000000
C       1.229756   -3.550000    0.000000
C       2.459512   -2.840000    0.000000
C       3.689268   -0.710000    0.000000
C       3.689268    0.710000    0.000000
C       4.919024    1.420000    0.000000
C       4.919024    2.840000    0.000000
C      -2.459512   -5.680000    0.000000
C      -1.229756   -4.970000    0.000000
C      -1.229756   -3.550000    0.000000
C       0.000000   -2.840000    0.000000
C       0.000000   -1.420000    0.000000
C       1.229756   -0.710000    0.000000
C       1.229756    0.710000    0.000000
C       2.459512    1.420000    0.000000
C       2.459512    2.840000    0.000000
C       3.689268    3.550000    0.000000
C       3.689268    4.970000    0.000000
H      -4.628620   -5.512335    0.000000
H       2.459512    6.764670    0.000000
H      -5.858376   -3.382335    0.000000
H      -0.000000    6.764670    0.000000
H      -7.088132   -1.252335    0.000000
H      -7.088132    1.252335    0.000000
H      -5.858376    3.382335    0.000000
H      -4.628620    5.512335    0.000000
H      -2.459512    6.764670    0.000000
H       2.459512   -6.764670    0.000000
H       4.628620   -5.512335    0.000000
H       5.858376   -3.382335    0.000000
H       7.088132   -1.252335    0.000000
H       7.088132    1.252335    0.000000
H       0.000000   -6.764670    0.000000
H       5.858376    3.382335    0.000000
H      -2.459512   -6.764670    0.000000
H       4.628620    5.512335    0.000000
